*Heading
** Job name: Ring Model name: Model-1
** Generated by: Abaqus/CAE Learning Edition 2022
*Preprint, echo=NO, model=NO, history=NO, contact=NO
**
** PARTS
**
*Part, name=Ring
*End Part
**  
**
** ASSEMBLY
**
*Assembly, name=Assembly
**  
*Instance, name=Ring-1, part=Ring
*Node
      1, 0.0594642758, 0.00800000038
      2, 0.0289136637, 0.00800000038
      3, 0.0299332589, 0.00200000009
      4, 0.0362638384, 0.00200000009
      5, 0.0397279412,           0.
      6, 0.0599999987,           0.
      7,           0., 0.0599999987
      8,           0., 0.0299999993
      9, 0.0149997165, 0.0524999984
     10, 0.0225000009, 0.0450000018
     11, 0.0584787726, 0.00800000038
     12, 0.0574932694, 0.00800000038
     13, 0.0565077625, 0.00800000038
     14, 0.0555222593, 0.00800000038
     15, 0.0545367561, 0.00800000038
     16, 0.0535512529, 0.00800000038
     17, 0.0525657497, 0.00800000038
     18, 0.0515802465, 0.00800000038
     19, 0.0505947433, 0.00800000038
     20, 0.0496092401, 0.00800000038
** ... 644 like lines cut
*Element, type=CPE3
1, 357, 283, 290
2, 359, 285, 280
3, 358, 328, 356
258, 470, 462, 465
259, 424, 398, 407
260, 657, 446, 458
261, 464, 463, 457
262, 463, 453, 450
263, 621, 481, 486
264, 539, 646, 554
265, 613, 606, 654
266, 661, 595, 593
267, 664, 605, 661
268, 662, 492, 534
*Element, type=CPE4R
  4,  52,  53, 172, 173
  5, 199, 258, 263, 201
  6, 280, 285, 233, 212
  7,  45, 360, 200,  44
  8, 185,  59,  60, 195
  9, 207, 180,  11,  12
 10,  68, 188, 187,  67
 11, 170, 231, 213, 162
 12,  40,   2,  41, 146
 13, 146, 147,  39,  40
 14,  38,  39, 147, 165
 15,  44, 200, 199,  43
 16, 202, 206,  50,   4
 17, 158, 159,  36,  37
 18,  33,  34, 148, 149
 19, 309, 262, 206, 202
 20, 313, 293, 171, 190
 21, 143, 167,  30,  31
 22, 182,  55,  56, 191
 23,  29,  30, 167, 151
** ... 581 like lines cut
*Nset, nset=_PickedSet3, internal, generate
   1,  664,    1
*Elset, elset=_PickedSet3, internal, generate
   1,  615,    1
** Section: Section-1
*Solid Section, elset=_PickedSet3, material=Polymer
0.01,
*End Instance
**  
*Nset, nset=_PickedSet5, internal, instance=Ring-1
 9,
*Nset, nset=_PickedSet6, internal, instance=Ring-1
  5,  6, 54, 55, 56, 57, 58, 59, 60, 61, 62, 63, 64, 65, 66, 67
 68, 69, 70, 71, 72
*Elset, elset=_PickedSet6, internal, instance=Ring-1
   8,  10,  22,  34,  45,  49,  52,  60,  62,  63,  79,  96,  97,  98,  99, 103
 107, 108, 109, 112
*Nset, nset=_PickedSet7, internal, instance=Ring-1
 5,
*Nset, nset=_PickedSet8, internal, instance=Ring-1
 5,
*End Assembly
** 
** MATERIALS
** 
*Material, name=Polymer
*Elastic
 2.289e+09, 0.3
** ----------------------------------------------------------------
** 
** STEP: Step-1
** 
*Step, name=Step-1, nlgeom=NO
*Static
1., 1., 1e-05, 1.
** 
** BOUNDARY CONDITIONS
** 
** Name: BC-1 Type: Symmetry/Antisymmetry/Encastre
*Boundary
_PickedSet6, YSYMM
** 
** LOADS
** 
** Name: Load-1   Type: Concentrated force
*Cload
_PickedSet5, 2, 209.45
** 
** OUTPUT REQUESTS
** 
*Restart, write, frequency=0
** 
** FIELD OUTPUT: F-Output-1
** 
*Output, field, variable=PRESELECT
** 
** HISTORY OUTPUT: H-Output-2
** 
*Output, history
** 
** HISTORY OUTPUT: H-Output-1
** 
*Output, history, variable=PRESELECT
** 
** HISTORY OUTPUT: H-Output-2
** 
*Contour Integral, crack name=H-Output-2_Crack-1, contours=20, crack tip nodes, type=K FACTORS, symm
_PickedSet7, _PickedSet8, 1., 0., 0.
*End Step
